22
CT3	     -0.0173292931459708     -0.0208927220826308      -0.259942829365242
HA	        0.20031732385016       0.488445011006896      -0.185385850894029
HA	       0.548930398597917       0.547564475784885      -0.534455088128054
HA	       -1.44850704158494       0.335937692428013       -1.38084444028643
C	      0.0529011618944851      -0.230026207275261       0.199623218909187
O	       0.255991662292629       0.191451142679736       0.516009632383884
NH1	       0.106112727800609       0.164180120941111      -0.324430881566687
H	      0.0876849517273926      -0.893968563431261        0.49198549937426
CT1	       0.231271421751326      -0.322651740363641      0.0897686385678994
HB	       0.974150856962513      -0.689341799667836       0.106562039975363
CT3	       0.100600994039265    0.000573531731335036       0.313458354682786
HA	      -0.149207568346945     -0.0702962534838772       -1.01197529825137
HA	       -1.05676554648015      -0.419447779747353       0.104911937677122
HA	        1.11519017429631      -0.146444935819379       0.546189594528222
C	      -0.184805971324854      -0.184352323557694      -0.191316187465594
O	        -0.0819930638523      0.0374445882527528      -0.383202741236561
NH1	       0.258126022341412       0.417651594291953      -0.112367800248571
H	      -0.373936884880261        1.47316618607302      -0.769089931214579
CT3	       0.177303271984359       0.207654108954346       0.138412834780649
HA	     -0.0378389510869739      -0.437721771873295      -0.462522554059517
HA	       0.856260745475644       0.214030353498129       0.177505086425485
HA	      -0.231027236846685      -0.919287731100651      -0.263908759998945
